version 2
run General-0-20210106-16:25:49-16824
attr configname General
attr datetime 20210106-16:25:49
attr experiment General
attr inifile SimpleRouteError.ini
attr iterationvars ""
attr iterationvars2 $repetition=0
attr measurement ""
attr network SimpleRouteError
attr processid 16824
attr repetition 0
attr replication #0
attr resultdir results
attr runnumber 0
attr seedset 0

scalar SimpleRouteError.node[0].networkLayer.ip 	delayed:count 	0
attr interpolationmode  none
attr title  "Number of packet delayed, count"
scalar SimpleRouteError.node[0].networkLayer.ip 	rcvdPkt:count 	0
attr interpolationmode  none
attr title  "Number of packet received, count"
scalar SimpleRouteError.node[0].networkLayer.ip 	droppings:count 	0
attr interpolationmode  none
attr title  "Number of drops, count"
scalar SimpleRouteError.node[0].networkLayer.arp 	failedResolution:count 	0
attr title  "ARP failed resolutions, count"
scalar SimpleRouteError.node[0].networkLayer.arp 	initiatedResolution:count 	0
attr title  "ARP initiated resolutions, count"
scalar SimpleRouteError.node[0].networkLayer.arp 	sentReplies:count 	0
attr title  "ARP replies sent, count"
scalar SimpleRouteError.node[0].networkLayer.arp 	sentReq:count 	0
attr title  "ARP request sent, count"
scalar SimpleRouteError.node[0].wlan[0].mgmt 	dropPkByQueue:count 	0
attr interpolationmode  none
attr source  dropPkByQueue
attr title  "packets dropped by queue, count"
scalar SimpleRouteError.node[0].wlan[0].mgmt 	dropPkByQueue:sum(packetBytes) 	0
attr interpolationmode  none
attr source  dropPkByQueue
attr title  "packets dropped by queue, sum(packetBytes)"
scalar SimpleRouteError.node[0].wlan[0].mgmt 	dataQueueLen:max 	0
attr interpolationmode  sample-hold
attr title  "data queue length, max"
scalar SimpleRouteError.node[0].wlan[0].mgmt 	dataQueueLen:timeavg 	0
attr interpolationmode  sample-hold
attr title  "data queue length, timeavg"
scalar SimpleRouteError.node[0].wlan[0].mac 	"number of received packets" 	1
scalar SimpleRouteError.node[0].wlan[0].mac 	"number of collisions" 	0
scalar SimpleRouteError.node[0].wlan[0].mac 	"number of internal collisions" 	0
scalar SimpleRouteError.node[0].wlan[0].mac 	"number of retry for AC 0" 	0
scalar SimpleRouteError.node[0].wlan[0].mac 	"sent and receive bites" 	51072
scalar SimpleRouteError.node[0].wlan[0].mac 	"sent packet within AC 0" 	10
scalar SimpleRouteError.node[0].wlan[0].mac 	"sent in TXOP " 	0
scalar SimpleRouteError.node[0].wlan[0].mac 	"sentWithoutRetry AC 0" 	10
scalar SimpleRouteError.node[0].wlan[0].mac 	"numGivenUp AC 0" 	0
scalar SimpleRouteError.node[0].wlan[0].mac 	"numDropped AC 0" 	0
scalar SimpleRouteError.node[0].wlan[0].radio 	lossRate:min 	-1.#IND
attr interpolationmode  backward-sample-hold
attr title  "packet loss rate, min"
scalar SimpleRouteError.node[0].wlan[0].radio 	lossRate:max 	-1.#IND
attr interpolationmode  backward-sample-hold
attr title  "packet loss rate, max"
scalar SimpleRouteError.node[0].wlan[0].radio 	lossRate:timeavg 	-1.#IND
attr interpolationmode  backward-sample-hold
attr title  "packet loss rate, timeavg"
scalar SimpleRouteError.node[0].wlan[0].radio 	radioState:count 	293
attr interpolationmode  sample-hold
attr title  "radio state (enum), count"
statistic SimpleRouteError.node[0].wlan[0].radio 	channelNo:histogram
field count 1
field mean 0
field stddev -1.#IND
field sum 0
field sqrsum 0
field min 0
field max 0
attr interpolationmode  sample-hold
attr title  "channel no, histogram"
bin	-INF	0
bin	-0.5	0
bin	-0.46666666666667	0
bin	-0.43333333333333	0
bin	-0.4	0
bin	-0.36666666666667	0
bin	-0.33333333333333	0
bin	-0.3	0
bin	-0.26666666666667	0
bin	-0.23333333333333	0
bin	-0.2	0
bin	-0.16666666666667	0
bin	-0.13333333333333	0
bin	-0.1	0
bin	-0.066666666666667	0
bin	-0.033333333333333	0
bin	-6.9388939039072e-018	1
bin	0.033333333333333	0
bin	0.066666666666667	0
bin	0.1	0
bin	0.13333333333333	0
bin	0.16666666666667	0
bin	0.2	0
bin	0.23333333333333	0
bin	0.26666666666667	0
bin	0.3	0
bin	0.33333333333333	0
bin	0.36666666666667	0
bin	0.4	0
bin	0.43333333333333	0
bin	0.46666666666667	0
bin	0.5	0
scalar SimpleRouteError.node[0].wlan[0].radio 	bitrate:min 	54000000
attr interpolationmode  sample-hold
attr title  "tx bitrate, min"
attr unit  bps
scalar SimpleRouteError.node[0].wlan[0].radio 	bitrate:max 	54000000
attr interpolationmode  sample-hold
attr title  "tx bitrate, max"
attr unit  bps
scalar SimpleRouteError.node[0].wlan[0].radio 	bitrate:timeavg 	54000000
attr interpolationmode  sample-hold
attr title  "tx bitrate, timeavg"
attr unit  bps
scalar SimpleRouteError.node[0].udpApp[0] 	"packets sent" 	11
scalar SimpleRouteError.node[0].udpApp[0] 	"packets received" 	0
scalar SimpleRouteError.node[0].udpApp[0] 	sentPk:count 	11
attr interpolationmode  none
attr source  sentPk
attr title  "packets sent, count"
scalar SimpleRouteError.node[0].udpApp[0] 	sentPk:sum(packetBytes) 	5632
attr interpolationmode  none
attr source  sentPk
attr title  "packets sent, sum(packetBytes)"
scalar SimpleRouteError.node[0].udpApp[0] 	rcvdPk:count 	0
attr interpolationmode  none
attr source  rcvdPk
attr title  "packets received, count"
scalar SimpleRouteError.node[0].udpApp[0] 	rcvdPk:sum(packetBytes) 	0
attr interpolationmode  none
attr source  rcvdPk
attr title  "packets received, sum(packetBytes)"
statistic SimpleRouteError.node[0].udpApp[0] 	rcvdPkLifetime:stats
field count 0
field mean 0
field stddev -1.#IND
field sum 0
field sqrsum 0
field min 0
field max 0
attr interpolationmode  none
attr source  messageAge(rcvdPk)
attr title  "received packet lifetime, stats"
attr unit  s
scalar SimpleRouteError.node[0].udp 	droppedPkBadChecksum:count 	0
attr interpolationmode  none
attr title  "packets dropped (checksum error), count"
scalar SimpleRouteError.node[0].udp 	droppedPkWrongPort:count 	0
attr interpolationmode  none
attr title  "packets dropped (wrong port), count"
scalar SimpleRouteError.node[0].udp 	passedUpPk:count 	0
attr interpolationmode  none
attr title  "packets passed up, count"
scalar SimpleRouteError.node[0].udp 	sentPk:count 	11
attr interpolationmode  none
attr source  sentPk
attr title  "packets sent, count"
scalar SimpleRouteError.node[0].udp 	sentPk:sum(packetBytes) 	5720
attr interpolationmode  none
attr source  sentPk
attr title  "packets sent, sum(packetBytes)"
scalar SimpleRouteError.node[0].udp 	rcvdPk:count 	0
attr interpolationmode  none
attr source  rcvdPk
attr title  "packets received, count"
scalar SimpleRouteError.node[0].udp 	rcvdPk:sum(packetBytes) 	0
attr interpolationmode  none
attr source  rcvdPk
attr title  "packets received, sum(packetBytes)"
scalar SimpleRouteError.node[0].manetrouting 	"simulated time" 	4.998697693005
scalar SimpleRouteError.node[0].manetrouting 	"Aodv totalSend " 	14
scalar SimpleRouteError.node[0].manetrouting 	"rreq send" 	11
scalar SimpleRouteError.node[0].manetrouting 	"rreq rec" 	7
scalar SimpleRouteError.node[0].manetrouting 	"rrep send" 	2
scalar SimpleRouteError.node[0].manetrouting 	"rrep rec" 	2
scalar SimpleRouteError.node[0].manetrouting 	"rrep ack send" 	1
scalar SimpleRouteError.node[0].manetrouting 	"rrep ack rec" 	1
scalar SimpleRouteError.node[0].manetrouting 	"rerr send" 	0
scalar SimpleRouteError.node[0].manetrouting 	"rerr rec" 	0
scalar SimpleRouteError.node[1].networkLayer.ip 	delayed:count 	0
attr interpolationmode  none
attr title  "Number of packet delayed, count"
scalar SimpleRouteError.node[1].networkLayer.ip 	rcvdPkt:count 	11
attr interpolationmode  none
attr title  "Number of packet received, count"
scalar SimpleRouteError.node[1].networkLayer.ip 	droppings:count 	0
attr interpolationmode  none
attr title  "Number of drops, count"
scalar SimpleRouteError.node[1].networkLayer.arp 	failedResolution:count 	0
attr title  "ARP failed resolutions, count"
scalar SimpleRouteError.node[1].networkLayer.arp 	initiatedResolution:count 	0
attr title  "ARP initiated resolutions, count"
scalar SimpleRouteError.node[1].networkLayer.arp 	sentReplies:count 	0
attr title  "ARP replies sent, count"
scalar SimpleRouteError.node[1].networkLayer.arp 	sentReq:count 	0
attr title  "ARP request sent, count"
scalar SimpleRouteError.node[1].wlan[0].mgmt 	dropPkByQueue:count 	0
attr interpolationmode  none
attr source  dropPkByQueue
attr title  "packets dropped by queue, count"
scalar SimpleRouteError.node[1].wlan[0].mgmt 	dropPkByQueue:sum(packetBytes) 	0
attr interpolationmode  none
attr source  dropPkByQueue
attr title  "packets dropped by queue, sum(packetBytes)"
scalar SimpleRouteError.node[1].wlan[0].mgmt 	dataQueueLen:max 	0
attr interpolationmode  sample-hold
attr title  "data queue length, max"
scalar SimpleRouteError.node[1].wlan[0].mgmt 	dataQueueLen:timeavg 	0
attr interpolationmode  sample-hold
attr title  "data queue length, timeavg"
scalar SimpleRouteError.node[1].wlan[0].mac 	"number of received packets" 	12
scalar SimpleRouteError.node[1].wlan[0].mac 	"number of collisions" 	0
scalar SimpleRouteError.node[1].wlan[0].mac 	"number of internal collisions" 	0
scalar SimpleRouteError.node[1].wlan[0].mac 	"number of retry for AC 0" 	6
scalar SimpleRouteError.node[1].wlan[0].mac 	"sent and receive bites" 	14368
scalar SimpleRouteError.node[1].wlan[0].mac 	"sent packet within AC 0" 	4
scalar SimpleRouteError.node[1].wlan[0].mac 	"sent in TXOP " 	0
scalar SimpleRouteError.node[1].wlan[0].mac 	"sentWithoutRetry AC 0" 	4
scalar SimpleRouteError.node[1].wlan[0].mac 	"numGivenUp AC 0" 	1
scalar SimpleRouteError.node[1].wlan[0].mac 	"numDropped AC 0" 	0
scalar SimpleRouteError.node[1].wlan[0].radio 	lossRate:min 	-1.#IND
attr interpolationmode  backward-sample-hold
attr title  "packet loss rate, min"
scalar SimpleRouteError.node[1].wlan[0].radio 	lossRate:max 	-1.#IND
attr interpolationmode  backward-sample-hold
attr title  "packet loss rate, max"
scalar SimpleRouteError.node[1].wlan[0].radio 	lossRate:timeavg 	-1.#IND
attr interpolationmode  backward-sample-hold
attr title  "packet loss rate, timeavg"
scalar SimpleRouteError.node[1].wlan[0].radio 	radioState:count 	327
attr interpolationmode  sample-hold
attr title  "radio state (enum), count"
statistic SimpleRouteError.node[1].wlan[0].radio 	channelNo:histogram
field count 1
field mean 0
field stddev -1.#IND
field sum 0
field sqrsum 0
field min 0
field max 0
attr interpolationmode  sample-hold
attr title  "channel no, histogram"
bin	-INF	0
bin	-0.5	0
bin	-0.46666666666667	0
bin	-0.43333333333333	0
bin	-0.4	0
bin	-0.36666666666667	0
bin	-0.33333333333333	0
bin	-0.3	0
bin	-0.26666666666667	0
bin	-0.23333333333333	0
bin	-0.2	0
bin	-0.16666666666667	0
bin	-0.13333333333333	0
bin	-0.1	0
bin	-0.066666666666667	0
bin	-0.033333333333333	0
bin	-6.9388939039072e-018	1
bin	0.033333333333333	0
bin	0.066666666666667	0
bin	0.1	0
bin	0.13333333333333	0
bin	0.16666666666667	0
bin	0.2	0
bin	0.23333333333333	0
bin	0.26666666666667	0
bin	0.3	0
bin	0.33333333333333	0
bin	0.36666666666667	0
bin	0.4	0
bin	0.43333333333333	0
bin	0.46666666666667	0
bin	0.5	0
scalar SimpleRouteError.node[1].wlan[0].radio 	bitrate:min 	54000000
attr interpolationmode  sample-hold
attr title  "tx bitrate, min"
attr unit  bps
scalar SimpleRouteError.node[1].wlan[0].radio 	bitrate:max 	54000000
attr interpolationmode  sample-hold
attr title  "tx bitrate, max"
attr unit  bps
scalar SimpleRouteError.node[1].wlan[0].radio 	bitrate:timeavg 	54000000
attr interpolationmode  sample-hold
attr title  "tx bitrate, timeavg"
attr unit  bps
scalar SimpleRouteError.node[2].networkLayer.ip 	delayed:count 	0
attr interpolationmode  none
attr title  "Number of packet delayed, count"
scalar SimpleRouteError.node[2].networkLayer.ip 	rcvdPkt:count 	2
attr interpolationmode  none
attr title  "Number of packet received, count"
scalar SimpleRouteError.node[2].networkLayer.ip 	droppings:count 	0
attr interpolationmode  none
attr title  "Number of drops, count"
scalar SimpleRouteError.node[2].networkLayer.arp 	failedResolution:count 	0
attr title  "ARP failed resolutions, count"
scalar SimpleRouteError.node[2].networkLayer.arp 	initiatedResolution:count 	0
attr title  "ARP initiated resolutions, count"
scalar SimpleRouteError.node[2].networkLayer.arp 	sentReplies:count 	0
attr title  "ARP replies sent, count"
scalar SimpleRouteError.node[2].networkLayer.arp 	sentReq:count 	0
attr title  "ARP request sent, count"
scalar SimpleRouteError.node[2].wlan[0].mgmt 	dropPkByQueue:count 	0
attr interpolationmode  none
attr source  dropPkByQueue
attr title  "packets dropped by queue, count"
scalar SimpleRouteError.node[2].wlan[0].mgmt 	dropPkByQueue:sum(packetBytes) 	0
attr interpolationmode  none
attr source  dropPkByQueue
attr title  "packets dropped by queue, sum(packetBytes)"
scalar SimpleRouteError.node[2].wlan[0].mgmt 	dataQueueLen:max 	0
attr interpolationmode  sample-hold
attr title  "data queue length, max"
scalar SimpleRouteError.node[2].wlan[0].mgmt 	dataQueueLen:timeavg 	0
attr interpolationmode  sample-hold
attr title  "data queue length, timeavg"
scalar SimpleRouteError.node[2].wlan[0].mac 	"number of received packets" 	3
scalar SimpleRouteError.node[2].wlan[0].mac 	"number of collisions" 	0
scalar SimpleRouteError.node[2].wlan[0].mac 	"number of internal collisions" 	0
scalar SimpleRouteError.node[2].wlan[0].mac 	"number of retry for AC 0" 	0
scalar SimpleRouteError.node[2].wlan[0].mac 	"sent and receive bites" 	720
scalar SimpleRouteError.node[2].wlan[0].mac 	"sent packet within AC 0" 	1
scalar SimpleRouteError.node[2].wlan[0].mac 	"sent in TXOP " 	0
scalar SimpleRouteError.node[2].wlan[0].mac 	"sentWithoutRetry AC 0" 	1
scalar SimpleRouteError.node[2].wlan[0].mac 	"numGivenUp AC 0" 	0
scalar SimpleRouteError.node[2].wlan[0].mac 	"numDropped AC 0" 	0
scalar SimpleRouteError.node[2].wlan[0].radio 	lossRate:min 	-1.#IND
attr interpolationmode  backward-sample-hold
attr title  "packet loss rate, min"
scalar SimpleRouteError.node[2].wlan[0].radio 	lossRate:max 	-1.#IND
attr interpolationmode  backward-sample-hold
attr title  "packet loss rate, max"
scalar SimpleRouteError.node[2].wlan[0].radio 	lossRate:timeavg 	-1.#IND
attr interpolationmode  backward-sample-hold
attr title  "packet loss rate, timeavg"
scalar SimpleRouteError.node[2].wlan[0].radio 	radioState:count 	133
attr interpolationmode  sample-hold
attr title  "radio state (enum), count"
statistic SimpleRouteError.node[2].wlan[0].radio 	channelNo:histogram
field count 1
field mean 0
field stddev -1.#IND
field sum 0
field sqrsum 0
field min 0
field max 0
attr interpolationmode  sample-hold
attr title  "channel no, histogram"
bin	-INF	0
bin	-0.5	0
bin	-0.46666666666667	0
bin	-0.43333333333333	0
bin	-0.4	0
bin	-0.36666666666667	0
bin	-0.33333333333333	0
bin	-0.3	0
bin	-0.26666666666667	0
bin	-0.23333333333333	0
bin	-0.2	0
bin	-0.16666666666667	0
bin	-0.13333333333333	0
bin	-0.1	0
bin	-0.066666666666667	0
bin	-0.033333333333333	0
bin	-6.9388939039072e-018	1
bin	0.033333333333333	0
bin	0.066666666666667	0
bin	0.1	0
bin	0.13333333333333	0
bin	0.16666666666667	0
bin	0.2	0
bin	0.23333333333333	0
bin	0.26666666666667	0
bin	0.3	0
bin	0.33333333333333	0
bin	0.36666666666667	0
bin	0.4	0
bin	0.43333333333333	0
bin	0.46666666666667	0
bin	0.5	0
scalar SimpleRouteError.node[2].wlan[0].radio 	bitrate:min 	54000000
attr interpolationmode  sample-hold
attr title  "tx bitrate, min"
attr unit  bps
scalar SimpleRouteError.node[2].wlan[0].radio 	bitrate:max 	54000000
attr interpolationmode  sample-hold
attr title  "tx bitrate, max"
attr unit  bps
scalar SimpleRouteError.node[2].wlan[0].radio 	bitrate:timeavg 	54000000
attr interpolationmode  sample-hold
attr title  "tx bitrate, timeavg"
attr unit  bps
scalar SimpleRouteError.node[2].udpApp[0] 	rcvdPk:count 	2
attr interpolationmode  none
attr source  rcvdPk
attr title  "packets received, count"
scalar SimpleRouteError.node[2].udpApp[0] 	rcvdPk:sum(packetBytes) 	1024
attr interpolationmode  none
attr source  rcvdPk
attr title  "packets received, sum(packetBytes)"
statistic SimpleRouteError.node[2].udpApp[0] 	endToEndDelay:histogram
field count 2
field mean 0.123984372257
field stddev 0.17446576039617
field sum 0.247968744514
field sqrsum 0.061182550678539
field min 0.000618449996
field max 0.247350294518
attr interpolationmode  none
attr source  messageAge(rcvdPk)
attr title  "end-to-end delay, histogram"
attr unit  s
bin	-INF	0
bin	-0.122747472265	0
bin	-0.1062986826302	0
bin	-0.0898498929954	0
bin	-0.0734011033606	0
bin	-0.0569523137258	0
bin	-0.040503524091	0
bin	-0.0240547344562	0
bin	-0.0076059448214	1
bin	0.0088428448134	0
bin	0.0252916344482	0
bin	0.041740424083	0
bin	0.0581892137178	0
bin	0.0746380033526	0
bin	0.0910867929874	0
bin	0.1075355826222	0
bin	0.123984372257	0
bin	0.1404331618918	0
bin	0.1568819515266	0
bin	0.1733307411614	0
bin	0.1897795307962	0
bin	0.206228320431	0
bin	0.2226771100658	0
bin	0.2391258997006	1
bin	0.2555746893354	0
bin	0.2720234789702	0
bin	0.288472268605	0
bin	0.3049210582398	0
bin	0.3213698478746	0
bin	0.3378186375094	0
bin	0.3542674271442	0
bin	0.370716216779	0
scalar SimpleRouteError.node[2].udp 	droppedPkBadChecksum:count 	0
attr interpolationmode  none
attr title  "packets dropped (checksum error), count"
scalar SimpleRouteError.node[2].udp 	droppedPkWrongPort:count 	0
attr interpolationmode  none
attr title  "packets dropped (wrong port), count"
scalar SimpleRouteError.node[2].udp 	passedUpPk:count 	2
attr interpolationmode  none
attr title  "packets passed up, count"
scalar SimpleRouteError.node[2].udp 	sentPk:count 	0
attr interpolationmode  none
attr source  sentPk
attr title  "packets sent, count"
scalar SimpleRouteError.node[2].udp 	sentPk:sum(packetBytes) 	0
attr interpolationmode  none
attr source  sentPk
attr title  "packets sent, sum(packetBytes)"
scalar SimpleRouteError.node[2].udp 	rcvdPk:count 	2
attr interpolationmode  none
attr source  rcvdPk
attr title  "packets received, count"
scalar SimpleRouteError.node[2].udp 	rcvdPk:sum(packetBytes) 	1040
attr interpolationmode  none
attr source  rcvdPk
attr title  "packets received, sum(packetBytes)"
